20

C     -2.004016   -1.336884    1.079004
H     -2.354680   -0.811345    1.985867
H     -1.373587   -1.424184    2.727998
C      0.272105   -0.994470    2.371949
H      0.596714   -1.319736    2.161335
C     -0.005778    0.014562    0.732377
C      0.564161   -0.289861   -0.273427
H      0.106605   -0.215616   -0.695990
H     -0.434404   -0.028370   -0.396668
C      0.436738    1.016665   -0.752735
C      0.582769    1.801483   -1.994085
N      1.240081    2.500727   -2.846257
O      1.553031    1.748795    0.202513
H      1.448485    1.008136    0.429178
H      1.609638    0.676131   -1.209548
H      0.993749    0.765523    1.581087
O      0.537003   -1.655023    0.041359
H     -0.805789   -1.687147   -0.032299
H     -0.300452   -0.748241    3.580473
H     -0.514784   -2.004797    0.913276
