18

O      1.233472   -0.605107   -2.581751
H      0.309894   -0.473454   -2.949145
C      1.704570    0.142057   -1.545682
H      1.874210    1.070326   -1.960444
H      2.490360   -0.255428   -1.219318
C      0.659477    0.352070   -0.426702
C      1.255228    1.342573    0.499403
O      0.871537    2.375304    0.928112
H      2.339175    1.126085    0.726137
C      0.086963   -0.755933    0.438558
N      0.569452   -2.119698    0.300628
H      0.477208   -2.780299    1.001166
C     -0.650901   -1.788529   -0.246942
H     -1.720299   -1.661872   -0.281366
H     -0.380332   -2.098886   -1.293605
H     -0.175837   -0.452363    1.424799
O     -0.380147    0.924105   -1.158729
H     -1.300033    0.545898   -1.126936
