27

C     -1.704036   -0.237832   -2.194031
H     -2.488854    0.583107   -2.154907
H     -1.045668    0.079941   -2.946939
H     -2.064564   -1.165932   -2.710759
C     -1.272864   -0.528408   -0.796270
H     -2.027292   -0.901301   -0.239334
H     -0.620867   -1.515903   -0.838873
C     -0.365167    0.542035   -0.237146
H      0.194810    1.037316   -1.003606
O     -1.082602    1.483541    0.374290
H     -1.545916    2.211630   -0.160897
C      0.771231    0.056574    0.718549
C     -0.083002   -0.772276    1.873093
C      0.717527   -1.788632    2.726849
H      0.854297   -2.591455    2.119209
H      1.596089   -1.400417    3.038196
H      0.102902   -2.273887    3.404899
H     -0.924290   -1.123848    1.390312
H     -0.282897   -0.064778    2.578733
C      1.525457    1.131300    1.311901
C      2.768945    1.006962    2.180222
H      3.389703    0.155941    1.997811
H      2.441085    0.764614    3.179362
H      3.422838    1.870258    2.264909
H      0.910910    1.939579    1.690863
H      1.932464    1.811050    0.355178
H      1.401411   -0.604329    0.484112
