25

C      2.586948   -0.521457   -0.508079
C      1.792252   -0.414033    0.906558
H      2.030469   -1.582030    1.102412
H      2.403232    0.143355    1.455413
C      0.235450   -0.938184    0.681500
C     -0.279017   -1.867076    1.723492
H      0.529082   -1.788696    2.614879
H     -0.234717   -2.855046    1.365124
H      1.042087   -2.061921    1.209090
H     -0.209557   -0.181589    0.912608
O      0.206411   -0.112616   -0.675635
C     -0.845190    1.137496   -0.752593
C     -1.514701    1.970016   -0.562944
C     -1.941022    1.087438   -0.629167
H     -1.381885    0.670402   -2.248980
H     -2.997558    0.285313   -0.578528
H     -1.392693    2.785590   -1.300082
H     -2.408388    2.835877   -0.442951
C      0.192735    1.816011    0.367647
H      1.274346    1.356160    0.217933
H      1.177246    2.491764   -0.323093
H      0.331930    1.287394    1.278099
H      3.694965   -0.626521   -0.452213
H      3.195276    0.813062   -0.178228
H      1.822222   -0.239646   -1.027597
