23

C     -0.718453   -0.474084    1.531105
H     -0.098298   -1.369108    1.627901
H     -1.535733   -0.296388    2.279802
H     -0.040119    0.220735    1.861914
C     -1.136111   -0.374014    0.047453
C     -2.273191   -1.111334   -0.471855
C     -3.782551   -0.686563   -0.329165
H     -3.828111    0.436678   -0.072510
H     -4.262527   -1.185765    0.360851
O     -3.189325   -0.895353   -1.492858
H     -2.027171   -2.236363   -0.323592
C      0.035494   -0.200183   -0.782234
C      0.875320    1.010890   -0.635933
C      2.213933    0.714972   -0.002387
O      3.074224   -0.090041   -0.671310
H      3.139674   -0.862956   -0.478988
H      2.966280    1.954818   -0.134226
H      2.227338    0.582195    1.153347
H      0.854743    1.695158   -1.484080
H      0.419407    1.792412    0.034542
H     -0.359617   -0.307527   -1.722293
H      0.707835   -0.966699   -0.681791
H     -1.707299    0.739676    0.240512
