20

C      0.440760   -1.010812    2.906006
H      0.359842   -0.056665    3.465790
H     -0.327040   -1.710646    2.836027
C      0.866387   -0.580478    1.437811
H      1.791067   -1.120380    1.192670
C     -0.167382   -0.294968    0.531785
C      0.077085   -0.051198   -0.978499
H      0.705872    0.767176   -1.152146
H      0.637237   -0.884707   -1.211624
C     -1.176341    0.026192   -1.776557
C     -1.232667    0.843002   -2.848214
N     -1.096102    1.666175   -3.729116
O     -2.125312    0.571034   -0.878291
H     -1.653846    1.166903   -0.307894
H     -1.705956   -0.963298   -1.984271
H     -0.844347   -1.211268    0.576514
O     -1.078987    0.645540    1.140328
H     -0.495631    1.470002    1.143232
H      1.479359    0.281484    1.600512
H      1.250417   -1.467655    3.487841
