22

C      3.250048   -0.793967   -1.557864
N      2.910061    0.158487   -0.555737
C      1.596468    0.596905   -0.456999
O      1.183589    1.296666   -1.348042
C      0.867900    0.383076    0.914870
C     -0.618697    0.557286    0.715918
H     -0.820458    1.493024    0.209729
H     -1.092750    0.772218    1.603260
C     -1.367509   -0.520024    0.015885
C     -1.289703   -0.599326   -1.537727
H     -1.729358   -1.518990   -1.938398
H     -0.247830   -0.484610   -1.820851
H     -1.770507    0.037967   -2.113470
O     -1.234858   -1.702227    0.589998
H     -0.373520   -2.164796    0.448787
H     -2.330504   -0.443814    0.154371
H      1.319180    0.972908    1.634963
H      1.098111   -0.682560    1.113731
H      3.622715    0.356743    0.202802
H      3.709136   -0.242516   -2.368145
H      3.598935   -1.664639   -1.273222
H      2.278517   -1.042845   -2.038414
