24

C     -1.178257    0.217365   -3.799657
C     -0.864576    0.468436   -2.460208
C     -0.781227   -0.732750   -1.499256
O     -0.360541   -0.241509   -0.331616
C     -0.409907   -0.814025    1.097057
C      0.896409   -0.950514    1.802939
C      1.333080   -0.738171    3.249725
N      1.546330    0.454751    2.215876
H      0.941464    1.101519    2.339454
C      0.624828   -0.592401    4.441988
H     -0.169447   -0.139216    4.176465
H      0.996870   -0.271398    5.153562
H      0.279100   -1.458555    4.576838
H      2.331738   -1.148177    3.424425
H      1.703628   -1.358161    0.977174
H     -0.864770   -1.839389    1.089422
H     -1.125804    0.085297    1.649123
H     -1.606104   -1.274326   -1.358421
H     -0.025400   -1.389424   -1.878477
H     -1.619437    1.085050   -1.930481
H     -0.035913    1.045368   -2.332999
H     -2.370184    0.232237   -4.041217
H     -0.756559    0.957161   -4.539336
H     -0.795182   -0.843336   -4.251867
