21

C      1.999555    2.560878    1.049793
O      3.185997    2.293801    0.252902
C      3.098047    1.015025   -0.293967
C      1.781827    0.423672   -0.447892
C      0.796789   -0.086559   -0.902904
C     -0.487558   -0.585131   -1.124055
C     -1.057891   -1.080696    0.149182
C     -2.408446   -0.947705    0.797125
C     -2.174365   -2.153567   -0.057800
H     -1.972118   -3.131439    0.298953
H     -2.690807   -2.192998   -0.992865
H     -3.123076   -0.246569    0.674595
H     -2.485087   -1.286980    1.901705
H     -0.310513   -1.221526    1.004170
H     -1.143967    0.444942   -1.344416
H     -0.498653   -1.220446   -1.907028
H      3.628598    0.381134    0.437264
H      3.599822    0.921746   -1.267462
H      1.975405    3.639340    1.078089
H      1.094031    2.128964    0.698284
H      2.195338    2.292164    2.087946
