17

O     -0.573135    0.217004   -2.757377
H     -0.346578    1.084539   -3.269196
C     -1.229785    0.580979   -1.733506
C     -0.274201    1.229171   -0.670121
C     -0.475550    0.651490    0.605398
O     -1.752819    0.510713    1.092166
C      0.625257   -0.060371    1.229432
O      1.609201    0.786130    1.309962
C      0.436651   -1.456365    1.408956
O     -0.055296   -1.745145    2.698359
H     -0.271352   -0.912432    3.157245
H      1.425097   -1.881041    1.247036
H     -0.193973   -1.897928    0.673805
H      0.616644    1.050252   -1.007534
H     -0.295947    2.171134   -0.754364
H     -1.350262   -0.437665   -1.437037
H     -2.139727    0.901168   -1.934027
