19

O     -1.763512   -1.172536   -0.958131
H     -1.487221   -0.495002   -1.525629
C     -0.763159   -1.631999    0.068847
C      0.683434   -1.609301   -0.479428
C      1.176315   -0.218031   -0.835151
C      1.771470    0.607999   -0.127324
C      1.571040    2.039711    0.332438
H      1.769699    2.586475   -0.664638
H      2.351092    2.153409    0.859436
C      0.128250    2.543288    0.858209
C     -0.472522    1.345221    1.696141
O     -0.446398    0.228660    1.198229
H     -0.288820    1.321648    2.749942
H      0.311279    3.495846    1.312165
H     -0.586013    2.788925    0.114586
H      1.283850   -2.161114    0.205987
H      0.898472   -2.035279   -1.490032
H     -1.121787   -2.605824   -0.045132
H     -0.936137   -1.122365    0.871343
