25

C     -2.019993   -0.980320    0.165179
C     -0.791559   -1.455382   -0.402804
H     -0.099881   -2.128119    0.222848
H     -0.906517   -2.232358   -1.252485
C      0.067643   -0.303890   -0.777816
C      0.895676   -0.721586   -1.942929
H      1.369666    0.060959   -2.565372
H      0.177974   -1.381588   -2.884180
H      1.588461   -1.661968   -1.824413
H     -0.617338    0.646545   -1.176508
O      0.499544    0.381774    0.395589
C      0.069282    1.594582    0.823848
C      0.374991    2.941017    0.086462
C      0.802362    2.743595    1.356137
H      1.904221    2.741549    1.753490
H      0.225929    3.459074    2.249520
H     -0.516725    3.384096   -0.582980
H      1.271077    2.586591   -0.623849
C     -1.118787    1.568615    1.865876
H     -1.571671    2.483239    1.923105
H     -1.831421    1.195205    1.374691
H     -0.812681    1.313016    2.698420
H     -2.813335   -1.597500    0.206060
H     -1.872363   -0.482981    1.095724
H     -2.409134   -0.147379   -0.514624
