22

C     -1.435878   -1.303847    2.419487
N     -1.352583   -1.170378    0.930616
C     -0.152354   -1.901064    0.578894
O     -0.002847   -3.076632    0.869037
C      1.100766   -1.000923    0.494495
C      1.186586   -0.295714   -0.666970
H      1.161724   -0.833666   -1.612466
H      2.213487    0.167870   -0.787970
C      0.021163    0.739738   -0.874672
C     -0.013471    1.156588   -2.352326
H     -0.581087    2.178394   -2.485354
H     -0.466433    0.506990   -2.974221
H      0.982752    1.403394   -2.675837
O      0.129427    1.879292   -0.134232
H      0.821077    1.967967    0.370009
H     -0.984370    0.482548   -0.558082
H      2.065935   -1.586829    0.723236
H      1.292286   -0.364915    1.421436
H     -2.192794   -1.113941    0.335206
H     -1.077985   -0.346347    2.782471
H     -2.562777   -1.331714    2.696847
H     -1.160083   -2.290119    2.782094
