25

C     -0.067137   -0.461878    1.610053
C     -0.151062    0.705616    2.544678
O      1.629543    0.576328    1.391469
C      1.288416    1.864929    0.445728
C      0.623501    1.193836   -0.680302
C     -0.370283   -0.046729    0.427115
H     -0.380600   -0.923936    0.279826
H      0.076199   -0.207338    1.243811
H     -1.462766    0.500881    0.235647
C      1.608838    0.102043   -1.646462
O      1.436050   -1.260041   -1.268319
C      1.542816   -1.725575    0.111567
H      0.250578   -2.216302    0.026658
H      1.666000   -2.157273    1.091582
H      0.904028   -1.558949    0.883554
H      1.115586    0.224873   -2.579388
H      2.440730    0.774235   -1.860443
H     -0.288386    1.310486   -1.138537
H      2.019130    1.996437   -0.141905
H      0.311591    2.665154    1.219747
H     -0.199615    1.946789    1.845135
H      0.338011    0.929655    2.314097
H      0.194866   -1.655966    1.768979
H     -1.113613   -0.659692    1.386677
H     -0.477591   -0.800595    0.703068
