25

C      0.744627    1.457106    1.611584
C      0.294932    0.071936    1.752688
H     -0.756093    0.119935    2.149618
H      0.976657   -0.443717    2.396474
C      0.131835   -0.822349    0.445310
C     -0.913323   -1.582805    0.940337
H     -0.464797   -2.512143    1.622513
H     -1.530175   -1.238245    1.799562
H     -1.579466   -2.155759    0.231615
H      1.221140   -1.315539    0.302687
O      0.333604   -0.191432   -0.835257
C     -0.797905    0.658064   -1.302395
C     -1.673143    1.552269   -0.350331
C     -0.616327    2.068402   -1.031603
H      0.196503    2.357756   -0.245014
H     -0.297057    2.647293   -1.710672
H     -2.645720    1.563861   -0.654038
H     -1.631373    1.008068    0.667944
C     -1.407341   -0.242545   -2.304217
H     -2.453592   -0.051341   -2.516237
H     -0.813037   -0.071861   -3.230546
H     -1.244974   -1.262249   -2.013499
H     -0.000428    2.215697    1.904397
H      1.553855    1.803609    2.210258
H      1.195575    1.633909    0.558565
