21

C      1.657189    1.584166    3.275655
O      0.453904    1.423785    3.359221
C     -0.366117    1.619317    2.118289
C      0.021109    0.745452    1.027348
C     -0.221189   -0.090404    0.204722
C     -0.103732   -1.270159   -0.663169
C      0.757217   -0.882181   -1.888881
C      2.172645   -0.681308   -1.556996
C      1.639765   -1.925761   -2.334890
H      2.045852   -1.954302   -3.402321
H      1.915325   -3.006923   -1.941988
H      2.555028   -0.967228   -0.557675
H      2.815297   -0.004039   -1.930322
H      0.291499   -0.325644   -2.592521
H      0.066495   -2.008376   -0.053037
H     -1.147670   -1.432280   -1.088683
H     -1.373619    1.437002    2.478954
H     -0.084423    2.591395    1.882747
H      2.172228    0.854545    2.596501
H      1.980529    1.283585    4.309311
H      1.910008    2.552527    3.100657
