20

C     -1.807371    1.383040    0.418760
H     -2.634285    1.773173    0.096581
H     -1.536771    1.601485    1.523686
C     -0.489488    1.277200   -0.403504
H      0.047067    2.080408   -0.623899
C      0.342871   -0.002009   -0.099425
C      0.893687   -0.780368   -1.146682
H      0.214918   -1.409355   -1.669601
H      1.248656   -0.155284   -1.979523
C      1.984613   -1.684402   -0.735829
C      1.550918   -2.800584    0.078425
N      1.506258   -3.709654    0.606903
O      2.937698   -0.872484   -0.059223
H      3.186292   -1.113678    0.766246
H      2.780375   -2.061722   -1.422739
H     -0.367105   -0.653892    0.594994
O      1.070270    0.206959    1.048118
H      1.552617    0.968969    0.937000
H     -0.867936    1.140013   -1.560822
H     -2.031825    0.221026    0.669388
