19

O      1.056229   -0.270800    2.016370
H      1.227878   -0.704323    1.263387
C     -0.037755   -0.744398    2.793016
C     -1.156420   -1.258012    1.875080
C     -1.440146   -0.797473    0.659485
C     -1.283495   -0.344223   -0.266048
C     -1.272520   -0.072690   -1.671626
H     -1.243404    1.076355   -1.859356
H     -2.113324   -0.509267   -2.300182
C      0.166060   -0.512946   -2.365472
C      1.296132    0.324537   -1.894257
O      1.351663    1.521618   -1.838318
H      2.231844   -0.304659   -2.202170
H      0.033780   -0.252613   -3.547297
H      0.266893   -1.585638   -2.250184
H     -2.052630   -1.068253    2.739536
H     -1.378339   -2.255230    1.751319
H      0.536515   -1.487029    3.325636
H     -0.323102    0.156535    3.296272
