23

C      0.933555   -1.246005    1.729302
C      1.304189   -0.088164    0.851111
O      0.754746   -0.023119   -0.315835
C     -0.239577    1.082160   -0.846565
C     -0.550555    0.385498   -2.272240
H     -0.946687    1.195868   -2.829168
O      0.511013   -0.068525   -2.931431
H      0.911563   -0.766531   -2.346612
H     -1.374974   -0.360337   -2.311136
H      0.509257    1.868590   -0.877902
C     -1.484569    1.187013   -0.106904
C     -1.166466    1.319115    1.293635
H     -1.221369    2.559803    1.698210
H     -1.895279    0.839493    2.118681
H     -0.037196    1.074192    1.689551
O     -2.310284    2.003327   -0.837789
H     -2.127356    2.923125   -0.189019
H     -2.073250    0.191681   -0.345733
H      1.176301    0.858784    1.251755
H      2.264001   -0.158621    0.706892
H      1.139776   -2.128941    1.561954
H      1.302470   -1.042712    2.639491
H     -0.057171   -1.037256    1.920256
