18

O     -1.199307   -0.787496   -1.460532
H     -0.274563   -0.788029   -1.719844
C     -1.339421   -0.828082   -0.125059
H     -2.099082   -0.075717   -0.011110
H     -1.673435   -1.869841   -0.026411
C     -0.177830   -0.486989    0.837861
C     -0.686610    0.030037    2.160316
O     -1.250770   -0.645206    2.982880
H     -1.140403    1.060387    1.865118
C      0.790244    0.532809    0.168281
N      0.533413    2.036700    0.167707
H      1.158988    2.614598    0.256129
C      0.279720    1.217779   -1.002549
H      0.781730    1.278270   -1.850587
H     -0.331926    1.814611   -1.399544
H      1.890297    0.334061    0.110869
O      0.614268   -1.621788    0.943616
H      0.854122   -1.784505    1.918000
