23

C      0.185550    0.369867   -0.357834
C      0.213919   -1.046421   -0.006884
O     -1.571405   -1.228992   -0.856406
C      1.350633   -0.071692   -0.270710
C      0.785035    0.943224    1.835719
H      1.634448   -1.019672   -1.156760
O      1.263408    0.552298   -0.552707
H      1.006414    0.174253   -1.724304
H     -0.328489    0.723038   -1.437786
H     -1.067597    2.307761    1.050734
C      0.501942    0.464195    2.372312
C      1.093401    1.491224   -0.385715
H     -1.551234   -1.151278    0.818540
H      0.915391    0.404557   -1.764593
H     -0.978355    1.783910   -1.231585
O      0.029706   -2.774526    1.451580
H      1.101252   -0.570074    0.548142
H      2.145712    0.256375   -2.068973
H     -0.632018   -0.435173   -0.680058
H     -0.239472   -1.300229    1.153234
H      0.381629    0.075129   -1.294811
H     -0.140690    1.763200    1.132030
H     -0.255266    1.260095    0.106950
