18

O      2.806880    1.041618   -0.384982
H      2.373485    1.494620   -1.252115
C      1.936742    1.244828    0.539549
H      1.994381    2.340189    0.697722
H      2.501024    0.902970    1.354734
C      0.616692    0.703303    0.310808
C     -0.018860    1.542695   -0.768917
O      0.528592    1.508706   -1.873334
H     -1.081445    1.344190   -0.949576
C      0.407216   -0.650387    0.139267
N      0.384519   -1.312687   -1.119418
H      0.187339   -0.990522   -1.890696
C     -0.831673   -1.477696   -0.121853
H     -1.073584   -2.554476    0.082125
H     -1.748305   -0.908375   -0.270391
H      1.068572   -1.424106    0.819602
O     -0.138551    0.819649    1.534151
H     -0.317132    1.627543    1.661992
