21

C      0.592154   -1.565544    1.545581
O     -0.399969   -0.444532   -0.529164
C     -0.272391   -0.257374   -1.142849
C     -0.170984    1.154069   -0.066176
C     -0.308449   -3.555023    3.049318
C     -0.153209    0.002661   -2.655249
C      0.957692   -0.991937    1.701212
C     -0.378775    1.320673    3.850170
C      1.463406    0.165822    0.093504
H      1.296979   -0.618706   -0.428418
H      2.800138    1.506623   -1.430034
H      0.376231   -3.704787    0.375156
H      2.011836   -3.228788    0.714661
H     -1.552733    0.340414   -2.923574
H      1.854512   -0.790840   -0.151517
H      2.433968    1.951247   -0.275810
H      1.446797   -0.354082   -1.827829
H     -2.832746   -0.553092    2.292382
H      4.127133   -0.617437    1.681376
H      1.028014    2.398634   -0.293890
H      1.577501    0.052684    0.435056
