22

C      0.178165    3.954510   -0.542793
N     -0.358713    3.064582    0.664686
C     -0.503181    1.577046    0.554679
O     -1.781940    1.587961    0.261700
C      0.797465    1.218390    1.098457
C      0.641122   -0.581429    0.965068
H     -0.113003   -1.123095    1.106283
H     -0.324970   -0.457409    0.008124
C      1.087652   -1.572353    0.062478
C      1.261155   -1.976273   -1.439342
H      0.491952   -0.721504   -1.617684
H      1.741253   -2.083314   -2.370701
H      0.227254   -2.124458   -1.762537
O      2.595083   -0.980285    0.508795
H      3.536683   -1.007075    0.628408
H      1.713936   -2.438817    0.702343
H      0.901814    1.243039    1.849183
H      1.272631    1.439799    0.467258
H     -0.226950    3.364270    1.494200
H     -0.795519    3.700850   -1.249555
H     -0.249513    4.937229   -0.865669
H      1.068024    3.872901   -0.944380
