23

C      0.044560    1.744889   -0.565742
C     -1.681699    0.566741   -1.100825
O      0.503183    2.170283    0.340403
C      1.154247   -1.549228   -1.089822
C     -1.350561   -0.432625   -0.024806
H     -2.186862   -1.462630   -0.301178
O     -1.630895   -2.289249    0.141170
H     -1.005426   -1.656773    0.495783
H     -2.017637    0.489016    1.179652
H      1.437117    0.294900    0.951638
C     -2.116701    0.163478    3.546223
C      1.946171   -0.376795   -1.208698
H      2.905081   -1.666339    0.941372
H      2.089857   -0.013038   -2.160973
H     -1.786877   -1.600975    2.226632
O     -1.087864   -1.330785   -0.447672
H      1.856683    1.258362    0.123894
H     -4.098833    0.829489    2.416759
H     -1.867995   -0.548422    1.134457
H     -0.762985   -0.733594    0.380786
H     -0.236199    1.823554   -1.523425
H      0.870000    1.068169   -0.594415
H      0.269225    2.567541    0.194469
