20

C      2.470848    0.858514   -1.897898
H      2.202313    0.553716   -2.952523
H      3.123093    0.099612   -1.608570
C      1.181416    0.835522   -1.134499
H      0.580609    1.742744   -1.407611
C      0.251956   -0.328682   -0.854617
C     -0.210370   -0.464670    0.641736
H      0.515275   -0.497246    1.187351
H     -0.532186    0.500522    0.896923
C     -1.056587   -1.587013    1.085673
C     -0.365758   -2.653656    1.331565
N     -0.013501   -4.027048    1.534351
O     -1.459197   -1.225468    2.357946
H     -0.560784   -1.071718    2.794417
H     -1.930304   -1.684359    0.551333
H      0.701102   -1.294803   -1.281129
O     -0.756186   -0.212354   -1.874057
H     -1.228382    0.671455   -1.908275
H      1.394621    1.274324   -0.064051
H      2.900247    1.739901   -1.905133
