25

C      0.566900   -0.682916   -2.865259
C      1.283430   -1.067784   -1.640886
H      2.227737   -1.497913   -1.792092
H      0.606934   -1.987352   -1.216641
C      1.218279   -0.022998   -0.508445
C      1.557305    1.357454   -1.065541
H      1.446754    2.093593   -0.273707
H      0.762552    1.711407   -1.713057
H      2.437654    1.447575   -1.479304
H      1.900253   -0.199753    0.269438
O      0.005184   -0.083824    0.225583
C     -0.627464    0.065638    1.270543
C     -2.174249   -0.329384    1.406599
C     -1.701811    1.041797    0.903576
H     -2.048448    1.181719   -0.107402
H     -2.049712    1.947210    1.304785
H     -2.640908   -0.980635    0.756801
H     -2.550629   -0.420438    2.328245
C      0.096980    0.087530    2.634478
H      0.312753   -0.895590    2.700496
H      0.988110    0.744339    2.667588
H     -0.425613    0.544766    3.360678
H      0.998575   -1.005352   -3.741646
H      0.606149    0.438869   -3.031153
H     -0.461046   -0.928679   -2.966736
