18

O      2.530458    0.800005   -1.351861
H      3.324085    1.312093   -1.617638
C      1.555873    1.386379   -0.675339
H      1.100368    2.110731   -1.334145
H      2.082227    2.004831    0.024292
C      0.667326    0.418897    0.118715
C      1.294328   -0.323190    1.161291
O      1.780337   -1.397191    0.861360
H      2.214334    0.222796    1.592696
C     -0.342410   -0.179881   -0.625985
N     -1.356433   -1.108729   -0.245773
H     -1.666333   -1.581016    0.433354
C      0.008219   -1.681582   -1.049994
H      0.758445   -2.369733   -0.323432
H     -0.557907   -2.286473   -1.775839
H     -0.805597    0.336483   -1.682333
O     -0.105901    1.254386    1.097205
H     -0.416212    1.960025    0.575001
