27

C     -0.783460   -2.741693    0.057573
H     -0.203179   -1.880231   -0.585004
H     -1.300578   -3.337331   -0.491767
H      0.059021   -3.047883    0.687656
C     -1.720760   -1.829876    0.988234
H     -2.457062   -1.241581    0.298059
H     -2.453562   -2.306112    1.603022
C     -0.879743   -0.769480    1.738833
H      0.041406   -1.260226    1.978464
O     -1.563862   -0.268346    2.838843
H     -2.462790   -0.032406    2.808670
C     -0.553913    0.555047    0.966934
C      0.924477    0.438240    0.732770
C      1.713009    1.695951   -0.030265
H      2.420157    1.463871   -0.780309
H      0.998945    2.255019   -0.518961
H      2.300389    2.219924    0.656950
H      1.495036    0.316882    1.537531
H      1.221344   -0.303036    0.053553
C     -1.257745    0.609618   -0.409844
C     -2.752592    1.115791   -0.435924
H     -3.366088    0.694806    0.272784
H     -2.784058    2.088166   -0.297514
H     -3.272312    0.858724   -1.360293
H     -0.872937    1.030087   -1.212135
H     -1.373435   -0.494418   -0.755597
H     -0.921269    1.412068    1.476471
