19

C      0.837379   -2.253385    1.278749
H      1.023084   -3.208083    1.053362
H      1.506557   -1.966875    0.543885
H      0.588232   -2.369398   -0.019923
C     -0.326420   -1.914550    1.740215
C     -0.671156   -0.465654    1.564099
C     -0.059312    0.838353    1.496741
C     -0.072950    2.043359    0.965691
H      0.725568    2.506458    1.578409
H     -0.903408    2.630581    0.958223
O      0.330967    2.062160   -0.382314
C      0.569703    0.921951   -0.980481
O      0.203135    0.127597   -0.403462
C      0.725272    1.091628   -2.566677
H      0.806529    0.138366   -3.015222
H      0.029254    1.567270   -2.804434
H      1.614305    1.574956   -2.625532
H     -0.243710   -2.138154    2.743412
H     -1.261060   -2.490050    1.566463
