17

O     -2.776972    1.722229    1.246074
H     -2.156708    2.130069    1.564252
C     -2.792363    0.483708    0.565210
C     -1.453419   -0.250072    0.862267
C     -0.376549   -0.084939   -0.126655
O     -0.642928    0.633800   -1.361962
C      0.962524   -0.609682    0.229940
O      1.019896   -1.511485    0.731268
C      2.202192    0.230585   -0.066784
O      2.656606   -0.045259   -1.186702
H      2.043358   -0.148887   -1.901158
H      1.940070    1.139709    0.000703
H      2.772400    0.146665    0.476848
H     -1.118136   -0.094815    1.906314
H     -1.805921   -1.322017    0.699509
H     -2.876312    0.735259   -0.517781
H     -3.713726    0.014207    0.927452
