18

O      0.558211   -0.628755   -2.812202
H      0.857386   -1.338472   -2.905970
C      0.731135    0.104619   -1.646346
H      0.382082    1.114707   -1.882862
H      1.810393    0.196814   -1.414454
C     -0.140988   -0.335565   -0.449894
C     -1.612190    0.055688   -0.841968
O     -2.060143   -0.644020   -1.805436
H     -1.604998    1.015304   -1.098853
C      0.079082    0.206912    0.870975
N      1.197895    0.719718    1.464996
H      1.966912    0.929580    0.896086
C      0.174590    1.706228    1.243019
H     -0.211198    2.418574    0.726468
H      0.029883    2.012471    2.330389
H     -0.656235   -0.225473    1.726882
O      0.148060   -1.643717   -0.085427
H     -0.011037   -2.123642   -0.925560
