27

C      2.229002   -0.017883    1.219277
H      3.019541   -0.633364    0.845831
H      1.724243   -0.590803    1.888958
H      2.594401    0.859598    1.558472
C      1.259160    0.322677    0.017317
H      1.821308    0.864661   -0.806302
H      1.008870   -0.546208   -0.492505
C      0.035858    1.184998    0.392075
H     -0.375938    0.542183    1.265019
O      0.409057    2.268868    1.106138
H      0.428908    2.982619    0.657398
C     -1.143971    1.165991   -0.445651
C     -1.503871    0.201306   -1.449257
C     -0.683634   -1.013256   -1.820426
H     -1.302267   -1.739049   -2.447724
H      0.181801   -0.824757   -2.337275
H     -0.432113   -1.547397   -0.959423
H     -1.903504    0.603217   -2.444539
H     -2.413500   -0.345545   -1.068671
C     -2.334731    1.416226    0.562238
C     -2.827487    0.290229    1.488542
H     -2.128354    0.035214    2.281170
H     -3.238233   -0.512892    0.883437
H     -3.694491    0.818221    2.044133
H     -3.246161    1.633049   -0.111205
H     -2.220427    2.366843    1.101572
H     -1.195572    2.096618   -1.053875
