22

C      2.354177    1.104685   -0.033627
N      1.036816    1.667441   -0.343374
C      0.059033    1.339033    0.575287
O      0.218549    1.597575    1.745483
C     -0.946187    0.354014    0.122218
C     -0.921443   -1.048255    0.775011
H     -1.653054   -1.642754    0.292761
H     -1.348044   -0.989677    1.801184
C      0.441427   -1.737406    0.759894
C      1.498124   -1.138743    1.678046
H      1.110275   -1.120865    2.668944
H      2.448758   -1.426348    1.636236
H      1.594988   -0.051150    1.366976
O      0.857512   -1.900966   -0.463672
H      1.549979   -1.180226   -0.633458
H      0.285905   -2.756020    1.014757
H     -0.972188    0.304514   -0.869364
H     -1.915444    0.822728    0.384811
H      0.924333    2.231878   -1.073932
H      3.053700    1.614643   -0.701161
H      2.376218    0.126910   -0.146370
H      2.709149    1.520697    1.004577
