23

C     -0.548961    0.761838   -3.055533
C     -1.399960    1.440927   -2.058163
O     -1.275899    1.096395   -0.847142
C     -0.671692    0.080513   -0.004955
C     -1.772529   -0.835203    0.564152
H     -2.013876   -0.611742    1.541082
O     -1.387592   -2.282343    0.394969
H     -0.744306   -2.197824    0.500974
H     -2.850342   -0.642282   -0.059194
H      0.084674   -0.309803   -0.785773
C      0.094954    0.337562    1.199204
C      0.662141   -0.858081    1.976083
H      0.958153   -1.542371    1.261805
H      0.713706   -0.883011    2.767776
H     -0.232267   -1.436376    1.911821
O      1.121201    1.265822    1.111414
H      1.771607    0.760554    0.451222
H     -0.376210    0.918859    1.912431
H     -2.411286    1.486555   -2.278842
H     -1.137438    2.509660   -2.109336
H     -0.407989    1.258798   -3.866676
H     -0.938970   -0.200801   -3.110435
H      0.446201    0.580900   -2.697489
