20

C      0.319070    0.225478    1.939914
H     -0.330884   -0.428168    2.343650
H      1.244992   -0.187740    1.823515
C     -0.078748    1.069105    0.702521
H     -1.259053    1.215570    0.905821
C     -0.062617    0.244299   -0.579600
C     -0.849378   -1.017169   -0.446827
H     -1.038549   -1.302009    0.568995
H     -1.878393   -0.723692   -0.815585
C     -0.546284   -2.291416   -1.195145
C     -1.226244   -3.517167   -0.915733
N     -1.894416   -4.518361   -1.002924
O     -0.574096   -2.148556   -2.611922
H     -1.474346   -2.174565   -2.764045
H      0.576967   -2.525480   -1.128186
H     -0.417427    0.675725   -1.418082
O      1.298804    0.063389   -0.617060
H      1.567500   -0.740762   -0.977108
H      0.039831    2.053009    0.769867
H      0.654523    0.998114    2.835475
