25

C      5.342782   -0.839700    0.835357
C      2.134215    1.150633    3.871966
H      0.043386    1.944548   -2.831752
H     -0.841754   -3.405544   -1.771336
C      1.938290    0.717982    1.647951
C      1.627225   -0.452690    2.303329
H     -0.317540   -0.605302    2.741897
H     -0.684098    0.728660    1.478797
H      0.258451    1.016420    2.960814
H      0.596906   -1.240120    1.578810
O      0.452601    0.664734    0.551044
C     -0.594963    0.446317   -0.779740
C     -1.660199   -0.639181   -0.894218
C     -1.940034    0.316626   -0.159457
H     -2.607676    1.353878   -0.577877
H     -2.558379   -0.090397    0.991806
H     -1.876291   -1.749728   -0.428414
H     -2.228242   -0.758264   -1.925327
C     -0.676935    1.255897   -1.672598
H      0.598879    0.971918   -1.661895
H     -0.512065    2.246372   -1.446770
H     -0.373247    1.395610   -2.456866
H     -1.701344   -0.728376   -0.143932
H     -0.192145   -4.298584    2.921550
H      3.623796    1.827769    0.922866
