23

C     -0.649521    1.884737    0.169131
H     -0.173254    1.726342   -0.269606
H     -0.807748    1.134898   -2.131435
H     -1.061971    0.758521   -0.950140
C     -0.896120    1.566141   -0.569267
C      0.666663    2.284753   -0.673505
C     -2.973677   -0.086287    0.540693
H     -0.978344    0.804801    0.406545
H     -2.349086   -0.568570    0.178164
O     -1.826749    2.678599   -0.741145
H     -0.655562    1.210293   -0.233248
C     -0.197808    0.508076    1.005796
C      1.144347   -1.110087    0.449964
C     -0.022376   -2.164634    0.827948
O      0.804861   -3.791410    1.132721
H      1.420290   -2.906507    0.344424
H     -1.058022   -1.698988    1.339077
H     -0.580896   -2.614593   -0.283347
H      1.693438   -1.558406   -0.185138
H      1.456908   -1.066586    1.269100
H     -1.483463    0.738988    1.080755
H      0.128435    0.926066    1.301698
H     -0.505644    0.012912   -0.844369
