25

C      0.971390   -0.626409    0.093417
C      0.100855   -1.298083    0.456106
O      2.892451   -1.408090   -0.217131
C     -0.531210   -0.251257    1.959049
C      1.588105   -1.301329    2.025645
C      0.684667   -2.416604    0.539888
H     -0.572040   -0.446857    1.211455
H      0.979673    0.688424    1.276207
H      1.187602    1.221052   -1.047868
C      1.246566   -0.217164   -0.090777
O      0.820357    2.112018   -0.926095
C      0.277264    0.686835    0.042173
H     -0.546069    0.812570    2.732037
H     -0.740973    0.800566    1.568629
H      0.340748   -0.509051    0.411522
H      0.042501    0.208975   -2.360951
H     -0.284225   -2.457278   -1.698259
H      0.635857    1.669698    0.513730
H      1.226858   -2.689070   -0.602864
H      2.472459   -0.659428    0.287456
H     -3.719992   -0.356548   -0.493273
H      0.509050   -2.251887    2.787313
H     -0.157674   -1.571677   -2.586082
H      0.601158    0.155954    3.067102
H      0.641274   -1.571006    0.663369
