21

C     -0.078226   -1.814911   -2.849584
O      1.179539   -1.968570   -2.228938
C      2.113847   -1.002553   -1.999913
C      1.861658   -0.558089   -0.656348
C      1.874900    0.325650    0.249495
C      1.109918    1.538031    0.608762
C     -0.333096    1.523246    1.144211
C     -1.372811    0.955650    0.265835
C     -0.814838    0.129128    1.440331
H     -0.532520   -0.798648    1.346704
H     -1.246646    0.203235    2.449055
H     -1.284193    0.522838   -0.675659
H     -2.247406    1.333260    0.262298
H     -0.655055    2.284256    1.684645
H      1.180047    2.200336   -0.236020
H      1.633450    1.937965    1.457829
H      2.151240   -0.267157   -2.800657
H      3.093949   -1.451861   -1.819709
H     -0.510000   -2.722506   -2.477370
H     -0.563364   -0.894657   -2.746601
H      0.193241   -1.906210   -3.943713
