23

C      1.737273    0.744697   -0.368389
H      1.655573    0.585351   -1.434828
H      1.157248    1.861409   -0.173175
H      2.894752    0.785490   -0.182422
C      1.272199   -0.335794    0.554085
C      0.842010    0.227273    1.984960
C      1.254316    1.520642    2.446307
H      1.893696    1.627989    3.264708
H      1.731594    2.347972    1.803648
O      0.103209    1.243069    2.217908
H      0.853236   -0.622695    2.743234
C      0.054430   -1.039595    0.066113
C     -0.253492   -0.987597   -1.489671
C     -1.603225   -0.696389   -1.888279
O     -1.437690   -0.313282   -3.289961
H     -2.207820    0.022947   -3.578686
H     -2.199867   -1.585482   -2.125256
H     -1.987699    0.165581   -1.458668
H      0.118505   -1.861884   -2.036463
H      0.525321   -0.337297   -1.992857
H     -0.944712   -0.508385    0.680677
H      0.178644   -2.134268    0.193045
H      2.211311   -0.911077    0.606626
