20

C      1.165481    2.425475    0.705389
H      2.166714    2.189476    1.050008
H      0.703843    3.102033    1.292925
C      0.336568    1.072923    0.895130
H      0.047939    0.846098    1.869848
C      0.862397   -0.135411    0.130822
C     -0.224106   -1.163475   -0.045032
H     -0.916376   -1.277116    0.783842
H      0.261054   -2.143976    0.282401
C     -0.869660   -1.120079   -1.459846
C     -0.904854    0.284098   -1.891261
N     -1.034066    1.312639   -2.070471
O     -0.006346   -1.697743   -2.396490
H      0.876200   -1.551401   -2.348805
H     -1.807850   -1.562423   -1.321422
H      1.580170   -0.650596    0.982020
O      1.743403    0.051287   -0.800300
H      1.496862    0.693978   -1.365157
H     -0.619631    1.268156    0.388285
H      1.184375    2.690360   -0.286114
