24

C      0.329152    0.864966    2.535990
C     -0.027979    1.022499    1.082260
C      0.804722    0.326196    0.028912
H      0.942586    1.032784   -0.763078
H      1.796394    0.202815    0.350348
C      0.117858   -1.084379   -0.235083
C      0.954397   -2.205276   -0.290426
H      1.659634   -2.235702    0.522475
H      1.595270   -2.255057   -1.129578
H      0.328887   -3.086358   -0.046810
O     -0.431067   -1.169838   -1.552047
C     -1.906038   -0.557429   -1.729000
C     -2.210317   -0.681000   -3.046103
H     -2.592075   -1.760118   -3.264257
H     -1.454302   -0.595330   -3.827702
H     -3.049647    0.079460   -3.461274
H     -1.780346    0.413989   -1.181988
H     -2.405439   -1.214272   -0.894811
H     -0.669550   -1.070974    0.487802
H     -1.076991    0.967602    0.886102
H      0.226155    2.150686    0.839127
H      0.207509    1.687716    3.198277
H      1.491526    0.733250    2.522274
H      0.137218   -0.160102    2.901303
