23

C      0.462882    2.682246   -2.150010
C      0.712646    1.542838   -1.153656
O     -0.496733    0.834104   -0.743331
C     -0.669915    0.163605    0.281500
C     -0.776585    1.011558    1.620981
H     -1.672595    1.502473    1.516390
O     -0.608045    0.137582    2.689341
H     -1.291392   -0.657797    2.883844
H      0.000669    1.640321    1.761273
H     -1.547886   -0.340251    0.246629
C      0.440217   -0.896939    0.179815
C      0.086305   -1.980299    1.109475
H      0.458395   -3.047350    0.614499
H     -1.011528   -2.226646    1.179879
H      0.457390   -1.754363    2.100731
O      1.658447   -0.416484    0.167381
H      1.979924    0.182594   -0.594076
H      0.403374   -1.389253   -0.824600
H      1.381068    0.528993   -1.808561
H      1.385849    1.963265   -0.341594
H      0.024492    2.527656   -3.101782
H      0.123836    3.598430   -1.496305
H      1.495843    3.128623   -2.542943
