25

C      0.255992    0.325731   -4.355453
C     -0.523704   -2.103391    1.323848
O      1.536627   -1.376753    0.875069
C     -1.645866   -1.559488    1.233278
C      2.661268    0.374002   -3.037871
C      2.704557   -1.088995   -1.222165
H      0.453196    0.639149    1.345623
H     -1.030684    1.002456   -0.800144
H     -1.427294    0.762348    2.253496
C     -1.846191    2.480176   -0.756472
O      0.896594    2.509383   -0.120013
C      0.396294    0.414243    0.538729
H      0.652240   -0.631901   -1.814323
H     -0.909152   -2.244951   -0.404895
H     -2.377394   -0.043041    1.216088
H     -0.568226   -1.741242   -2.168761
H     -1.933018    0.829455    0.764940
H     -1.291318   -1.193302    1.393653
H     -0.749628   -1.109945   -2.113239
H     -0.928221    0.611771    2.149680
H     -1.605824   -1.831254   -2.515280
H     -0.531004   -1.302276   -0.821133
H     -1.736662   -1.386482   -0.967363
H      1.445607   -0.866431   -1.788386
H      0.551673    1.487797   -1.482595
