21

C      3.688030   -1.207913    0.123481
O      2.921489   -1.780107   -0.991879
C      2.000710   -1.318634   -1.599868
C      1.265787   -0.405816   -0.989943
C      0.182197    0.171742   -0.995247
C     -0.566397    1.440446   -0.582994
C     -1.461010    1.293888    0.465821
C     -2.090105    0.010993    0.795140
C     -3.014650    1.047218    0.145565
H     -3.025558    0.913300   -0.964836
H     -3.896205    1.480106    0.489605
H     -2.086139   -0.958775    0.507841
H     -2.376358   -0.370098    1.868380
H     -1.250241    2.171189    1.468044
H      0.146825    2.171659   -0.597490
H     -1.083298    1.624863   -1.562775
H      2.287783   -0.953692   -2.623604
H      1.363796   -1.894906   -1.741101
H      2.948616   -1.144195    1.092901
H      4.152055   -0.206141    0.007911
H      4.622766   -2.136559    0.385188
