19

C     -1.731561    1.233159   -1.507319
H     -1.415873    1.821377   -2.544015
O     -0.556837    0.690382   -1.202758
C     -0.071030    0.610708    0.186287
C     -0.113370   -0.900811    0.725199
O      0.440292   -1.163183    1.671497
C     -1.080040   -1.541219   -0.207852
O     -1.966102   -0.723199   -0.835842
H     -1.480582    0.139825   -0.868928
H     -0.702420   -2.102447   -0.942514
H     -1.864974   -2.011522    0.480042
H     -0.793154    1.115737    0.765415
C      1.352100    1.050817    0.196021
O      2.395608    0.145265    0.143444
H      2.261979   -0.584830    0.365245
H      1.678121    1.587635   -0.724969
H      1.645295    1.759119    1.016591
H     -2.133461    2.005305   -0.980634
H     -2.537310    0.711314   -1.849852
