25

C     -0.284165    1.143483   -2.284302
C      1.060722    0.445667   -1.906954
H      1.270394   -0.472272   -2.414770
H      1.823871    1.115035   -2.398639
C      1.275930    0.217474   -0.438403
C      1.830695    1.448016    0.282977
H      1.137098    2.133140    0.669914
H      2.370871    1.952556   -0.527714
H      2.608765    1.352040    0.996939
H      1.949425   -0.628765   -0.219296
O      0.215783   -0.398437    0.256382
C     -0.679073   -0.658899    1.026271
C     -0.815066   -2.148489    1.469209
C     -1.792014   -1.612311    0.536988
H     -2.802965   -1.368550    0.869711
H     -1.787631   -1.770645   -0.502322
H     -0.081924   -2.791081    1.026413
H     -0.974034   -2.411782    2.504835
C     -1.171783    0.238051    2.130527
H     -0.517963    1.101701    1.926161
H     -0.799252   -0.067318    3.089484
H     -2.210863    0.511011    1.992110
H     -0.618821    0.933976   -3.183630
H     -0.986106    0.369934   -1.742990
H     -0.274370    2.092288   -2.034042
