24

C     -0.072130    0.966204   -3.402448
C     -0.035505    1.086704   -1.937338
C     -0.737160   -0.020736   -1.210576
H     -1.222299   -0.640042   -1.827883
H     -1.700914    0.440147   -0.867040
C      0.029396   -0.690558   -0.148182
C      0.063615   -2.264647   -0.126172
H      0.654918   -2.701632    0.744822
H     -1.201316   -2.612211   -0.057229
H      0.328274   -2.596448   -1.361870
O     -0.130690   -0.102190    1.231164
C      0.877766   -0.012753    2.062593
C      0.699664    1.252746    2.943108
H      1.518102    1.449685    3.470604
H      0.523434    1.863065    2.470866
H     -0.025922    1.080911    3.619753
H      0.762112   -0.818085    2.564713
H      1.811732   -0.144886    1.543175
H      1.272509   -0.256288   -0.213471
H     -0.548847    2.026665   -1.870710
H      0.778978    1.242184   -1.675395
H      0.413726    0.060238   -3.615068
H     -0.972490    0.918514   -3.832011
H      0.388546    1.767676   -3.911325
