17

O      2.532080    1.414325   -1.013317
H      2.697154    1.949419   -0.249163
C      1.336174    0.866514   -1.174728
C      0.772183    0.634628    0.203197
C     -0.460459   -0.211242    0.200045
O     -0.316560   -1.414345    0.313591
C     -1.843716    0.248046   -0.217493
O     -1.954363    0.685100   -1.256592
C     -2.964190    0.024264    0.827101
O     -2.672623    0.690140    2.015384
H     -1.828411    1.047726    2.009023
H     -3.745180    0.733905    0.573003
H     -3.141560   -1.016067    1.026162
H      0.558385    1.521018    0.634925
H      1.521728   -0.034890    0.695964
H      1.712817   -0.228127   -1.520716
H      0.787723    1.362609   -1.820678
