24

C      0.303660    0.903137    0.691550
C      0.588359    1.208570   -0.135422
C      0.084805    0.099035   -0.562308
O      0.300614   -1.050474   -0.684585
C      0.124979   -1.298118    1.365173
C      2.176939   -0.858826    1.528376
C      2.250101   -0.068910    0.109698
N     -3.611574    1.965570    0.342135
H      2.471480    0.372617   -3.163726
C     -0.172497   -1.508181    1.977960
H      1.631827    0.898203   -0.503880
H     -1.090716    0.142127   -1.675237
H     -0.466424   -1.170816    2.717431
H     -2.396220   -1.628218   -1.146373
H      0.962270   -0.049907   -2.180097
H     -0.548570    3.051450    1.491746
H     -0.103116   -1.212531   -4.063368
H      0.013408    0.458820   -0.750431
H      2.251396   -0.291281   -0.628743
H     -1.607815    0.284185   -1.290456
H     -0.178972    1.738532   -0.980906
H     -0.082278    1.674115    1.305200
H      1.154757    1.844632    1.087017
H      0.642562    3.383504    1.413399
