25

C     -1.972063   -0.133803    2.052003
C     -0.587808   -0.470653    2.350678
H     -0.410747   -0.329587    3.357693
H     -0.241442   -1.515602    2.311040
C      0.373786    0.238492    1.422706
C      1.706837    0.151442    1.926373
H      2.208562   -0.825748    2.203099
H      1.664704    0.576373    2.979672
H      2.422868    0.847026    1.514697
H      0.089916    1.327500    1.004004
O      0.098348   -0.342042    0.066297
C     -0.205468    0.408885   -1.251507
C      0.451783    1.723066   -1.581866
C      0.665475    0.513262   -2.370481
H      1.456244   -0.179525   -2.418868
H      0.165488    0.573525   -3.298543
H     -0.072736    2.589693   -1.650135
H      1.508280    1.979127   -1.016158
C     -1.677343    0.301883   -1.529117
H     -2.041822   -0.447901   -0.941537
H     -2.077795    1.007014   -1.457329
H     -1.822302    0.147462   -2.401987
H     -2.136410    1.107863    2.038152
H     -2.226124   -0.195055    1.072654
H     -2.670040   -0.603179    2.595004
