24

C     -0.201237   -1.547922    1.974697
C     -1.327817   -0.530474    1.475764
C     -1.241150   -0.552234   -0.201475
H     -1.243387   -1.577879   -0.594570
H     -2.449253   -0.074933   -0.501043
C     -0.275397    0.396652   -0.777386
C     -0.717220    0.640664   -2.073994
H      0.066392    1.442455   -2.631062
H     -0.581331   -0.186035   -2.761436
H     -1.704309    1.059811   -2.375746
O      1.035164   -0.138721   -0.774675
C      2.057764    0.402014    0.111508
C      2.898606    1.358186   -0.677827
H      2.315934    2.216484   -0.957388
H      3.755722    1.772224   -0.162596
H      3.164140    0.932061   -1.625392
H      1.529718    0.932366    0.960438
H      2.518974   -0.388121    0.508910
H      0.049067    1.195798    0.015087
H     -2.252706   -1.063457    1.797667
H     -1.088400    0.505604    1.799529
H      0.043485   -2.195920    1.088382
H     -0.505931   -1.957876    2.862045
H      0.659093   -1.069028    2.142344
