17

O      0.471942    3.072346    1.549746
H      1.292314    3.257797    1.767233
C      0.201074    1.705954    1.560660
C      0.978239    0.967215    0.517507
C      0.540942   -0.508292    0.538360
O      1.332146   -1.448426    0.808761
C     -0.936761   -0.742460    0.439969
O     -1.658319   -0.430577    1.402797
C     -1.366164   -1.446201   -0.759797
O     -1.588066   -0.683778   -1.923355
H     -1.104969    0.076049   -1.938458
H     -2.435621   -1.868198   -0.560961
H     -0.658827   -2.172748   -1.009483
H      2.057082    0.961866    0.545641
H      0.943378    1.405216   -0.529023
H     -0.766845    1.819672    1.019723
H      0.252375    1.264291    2.388219
